36
 energy: -69.216395662095 gnorm: 0.000642604902 xtb: 6.6.0 (8843059)
Cl          -0.80384528279915        2.73230877059090       -1.55411678362059
Cl          -3.24391100252623       -0.79010908098236        1.75468174021293
O            3.40688976118034       -0.76826086189095        0.19314207973879
O            1.90324163964912        0.79733446961526       -0.35761842454131
O            5.59373691236146        1.73346757712026       -1.12848584930495
O            4.60605301428223        1.57648925600207        0.87090888731225
N           -0.93422526597845        0.31374146698854        0.13027989254273
C            0.35684268957840       -1.65493842659998        0.64848137712520
C           -0.77228246538827       -1.06784127236466        0.06291979082848
C            1.36906012343343       -0.79650939474019        1.37173901663976
C            0.54139374816741       -3.02420162893481        0.54901912132600
C           -1.69596480939333       -1.87822603233239       -0.59560240101546
C           -2.13311824754703        0.97515908252770        0.00968101501953
C           -0.38579206828220       -3.82277773301912       -0.09775226865003
C           -1.50664288066589       -3.24398265295859       -0.66816851225915
C            2.23400437288489       -0.13608870080203        0.33015457298526
C           -2.22463028669002        2.16007117041257       -0.73883427764272
C           -3.29413139560027        0.57607915160183        0.68987751208732
C           -3.40128539093115        2.87536043659876       -0.84436607104968
C           -4.48175811510194        1.27503399997577        0.57259232547617
C           -4.53965341084629        2.42094776166085       -0.20044027543171
C            4.30540341527678       -0.19966132671539       -0.73666202023895
C            4.83217638728755        1.13164503177801       -0.21573774363356
H            0.85752552670435       -0.02545612773330        1.95018922517590
H            1.99247642320116       -1.40718141475177        2.02177038145792
H           -0.10897696592596        0.85748796981913       -0.10930957348638
H            1.41751694712385       -3.47036781291963        0.99676731435725
H           -2.55622917588165       -1.42267849064971       -1.06365581330535
H           -0.23263983173175       -4.88935530268759       -0.15687619740090
H           -2.23203622034401       -3.85632842432214       -1.18249992954903
H           -3.42429383603364        3.77657946425124       -1.43579008761958
H           -5.35132660031694        0.92629357506776        1.10634493647550
H           -5.46517168220876        2.96620392757934       -0.28902911748511
H            5.12993685033407       -0.90450721019523       -0.85468629074122
H            3.81747983367833       -0.02761402820221       -1.70288534980103
H            5.91427728904750        2.58788281121137       -0.79623220198148
